distopf/cases/dss/smartds_small/opendss/LineCodes.dss
New Linecode.1P_OH_AL_2/0_Rucina_2 units=km nphases=2 Faultrate=0.1 Rmatrix=(0.7166333333333332 0.28753333333333336 | 0.28753333333333336 0.7166333333333332 ) Xmatrix=(0.28883333333333333 0.1932333333333333 | 0.1932333333333333 0.28883333333333333 ) Cmatrix=(39.3595 -19.342100000000002 | -19.342100000000002 39.3595 ) normamps=115.0

New Linecode.1P_UG_AL_4/0_Sweetbriar_2 units=km nphases=2 Faultrate=0.1 Rmatrix=(0.5462333 0.2755333 | 0.2755333 0.5462333 ) Xmatrix=(0.2976 0.2043 | 0.2043 0.2976 ) Cmatrix=(39.3278 -18.6046 | -18.6046 39.3278 ) normamps=301.0

New Linecode.1P_UG_AL_1/0_Brenau_2 units=km nphases=2 Faultrate=0.1 Rmatrix=(0.9149 0.3744 | 0.3744 0.9149 ) Xmatrix=(0.4972667 0.3969667 | 0.3969667 0.4972667 ) Cmatrix=(36.4998 -16.313099999999995 | -16.313099999999995 36.4998 ) normamps=205.0

New Linecode.1P_OH_AL_4/0_Zuzara_2 units=km nphases=2 Faultrate=0.1 Rmatrix=(0.4728 0.20209999999999997 | 0.20209999999999997 0.4728 ) Xmatrix=(0.21353333333333335 0.12473333333333335 | 0.12473333333333335 0.21353333333333335 ) Cmatrix=(41.3578 -20.447400000000002 | -20.447400000000002 41.3578 ) normamps=115.0

New Linecode.1P_OH_AL_ACSR_#2_Sparrow_1 units=km nphases=1 Faultrate=0.1 Rmatrix=(1.0412 ) Xmatrix=(0.7627 ) Cmatrix=(7.69673 ) normamps=165.0

New Linecode.3P_OH_AL_ACSR_4/0_Penguin_3 units=km nphases=3 Faultrate=0.1 Rmatrix=(0.3635667 0.09006667 0.09006667 | 0.09006667 0.3635667 0.09006667 | 0.09006667 0.09006667 0.3635667 ) Xmatrix=(0.6385333 0.2202333 0.2202333 | 0.2202333 0.6385333 0.2202333 | 0.2202333 0.2202333 0.6385333 ) Cmatrix=(7.448267 -3.1846329999999994 -3.1846329999999994 | -3.1846329999999994 7.448267 -3.1846329999999994 | -3.1846329999999994 -3.1846329999999994 7.448267 ) normamps=325.0

New Linecode.3P_UG_AL_350kcmil_3_2 units=km nphases=3 Faultrate=0.1 Rmatrix=(0.3388667 0.1744667 0.1744667 | 0.1744667 0.3388667 0.1744667 | 0.1744667 0.1744667 0.3388667 ) Xmatrix=(0.5126 0.2912 0.2912 | 0.2912 0.5126 0.2912 | 0.2912 0.2912 0.5126 ) Cmatrix=(164.365 -81.63499999999999 -81.63499999999999 | -81.63499999999999 164.365 -81.63499999999999 | -81.63499999999999 -81.63499999999999 164.365 ) normamps=370.0

New Linecode.3P_UG_AL_750kcmil_3_1 units=km nphases=3 Faultrate=0.1 Rmatrix=(0.22961329999999996 0.1512433 0.1512433 | 0.1512433 0.22961329999999996 0.1512433 | 0.1512433 0.1512433 0.22961329999999996 ) Xmatrix=(0.54 0.2955 0.2955 | 0.2955 0.54 0.2955 | 0.2955 0.2955 0.54 ) Cmatrix=(169.559 -84.214 -84.214 | -84.214 169.559 -84.214 | -84.214 -84.214 169.559 ) normamps=550.0

New Linecode.fuse_1_3 units=km nphases=1 Faultrate=0.1 Rmatrix=(0.001 ) Xmatrix=(0.001 ) Cmatrix=(3.4 ) normamps=165.0

New Linecode.fuse_1 units=km nphases=1 Faultrate=0.1 Rmatrix=(0.001 ) Xmatrix=(0.001 ) Cmatrix=(3.4 ) normamps=325.0

New Linecode.goab_disswitch_3_1 units=km nphases=3 Faultrate=0.1 Rmatrix=(0.001 0.0 0.0 | 0.0 0.001 0.0 | 0.0 0.0 0.001 ) Xmatrix=(0.001 0.0 0.0 | 0.0 0.001 0.0 | 0.0 0.0 0.001 ) Cmatrix=(3.499563 -0.1093613 -0.1093613 | -0.1093613 3.499563 -0.1093613 | -0.1093613 -0.1093613 3.499563 ) normamps=325.0

New Linecode.recloser_3 units=km nphases=3 Faultrate=0.1 Rmatrix=(0.001 0.0 0.0 | 0.0 0.001 0.0 | 0.0 0.0 0.001 ) Xmatrix=(0.001 0.0 0.0 | 0.0 0.001 0.0 | 0.0 0.0 0.001 ) Cmatrix=(3.499563 -0.1093613 -0.1093613 | -0.1093613 3.499563 -0.1093613 | -0.1093613 -0.1093613 3.499563 ) normamps=325.0

New Linecode.goab_disswitch_3_3 units=km nphases=3 Faultrate=0.1 Rmatrix=(0.001 0.0 0.0 | 0.0 0.001 0.0 | 0.0 0.0 0.001 ) Xmatrix=(0.001 0.0 0.0 | 0.0 0.001 0.0 | 0.0 0.0 0.001 ) Cmatrix=(3.499563 -0.1093613 -0.1093613 | -0.1093613 3.499563 -0.1093613 | -0.1093613 -0.1093613 3.499563 ) normamps=550.0

