distopf/cases/dss/smartds_small/opendss/analysis/peak_line_overloads.csv
Loading (p.u.),Name,Bus1,Bus2
2.322927596105498,Line.l(r:p1udt942lv-p1ulv4193),p1udt942lv.1.2,p1ulv4193.1.2
2.3889500295299775,Line.l(r:p1udm3887-p1udt896lv),p1udt896lv.1.2,p1udm3887.1.2
2.530134145940938,Line.l(r:p1udm3887-p1udm3889),p1udm3887.1.2,p1udm3889.1.2
2.53013422098138,Line.l(r:p1udm3889-p1ulv7633),p1udm3889.1.2,p1ulv7633.1.2
2.6325614494790286,Line.l(r:p1udm3853-p1udt883lv),p1udt883lv.1.2,p1udm3853.1.2
2.632561665260242,Line.l(r:p1udm3853-p1ulv4110),p1udm3853.1.2,p1ulv4110.1.2
